<?xml version="1.0" encoding="UTF-8"?>

<!-- generated on mer 23 giu 2021, 16:19:33 by Eclipse SUMO netedit Version 1.4.0
<configuration xmlns:xsi="http://www.w3.org/2001/XMLSchema-instance" xsi:noNamespaceSchemaLocation="http://sumo.dlr.de/xsd/netconvertConfiguration.xsd">

    <input>
        <sumo-net-file value="/home/sifao/src/plexe-prog/examples/overtake/sumocfg/freeway.net.xml"/>
    </input>

    <output>
        <output-file value="/home/sifao/src/plexe-prog/examples/overtake/sumocfg/freeway.net.xml"/>
    </output>

    <processing>
        <geometry.min-radius.fix.railways value="false"/>
        <geometry.max-grade.fix value="false"/>
        <offset.disable-normalization value="true"/>
        <lefthand value="false"/>
    </processing>

    <junctions>
        <no-turnarounds value="true"/>
        <junctions.corner-detail value="0"/>
        <junctions.limit-turn-speed value="-1"/>
        <rectangular-lane-cut value="false"/>
    </junctions>

    <pedestrian>
        <walkingareas value="false"/>
    </pedestrian>

    <report>
        <aggregate-warnings value="5"/>
    </report>

</configuration>
-->

<net version="1.3" xmlns:xsi="http://www.w3.org/2001/XMLSchema-instance" xsi:noNamespaceSchemaLocation="http://sumo.dlr.de/xsd/net_file.xsd">

    <location netOffset="0.00,254.00" convBoundary="0.00,254.00,9400.00,254.00" origBoundary="0.00,-254.00,50000.00,0.00" projParameter="!"/>

    <edge id="edge_0_0" from="node_0_0" to="node_0_1" priority="7">
        <lane id="edge_0_0_0" index="0" speed="90.11" length="9400.00" shape="0.00,249.20 9400.00,249.20"/>
        <lane id="edge_0_0_1" index="1" speed="90.11" length="9400.00" shape="0.00,252.40 9400.00,252.40"/>
    </edge>

    <junction id="node_0_0" type="dead_end" x="0.00" y="254.00" incLanes="" intLanes="" shape="0.00,254.00 0.00,247.60"/>
    <junction id="node_0_1" type="dead_end" x="9400.00" y="254.00" incLanes="edge_0_0_0 edge_0_0_1" intLanes="" shape="9400.00,247.60 9400.00,254.00"/>

</net>
