<?xml version="1.0" encoding="UTF-8"?>

<!-- generated on gio 24 giu 2021, 11:24:58 by Eclipse SUMO netedit Version 1.4.0
<configuration xmlns:xsi="http://www.w3.org/2001/XMLSchema-instance" xsi:noNamespaceSchemaLocation="http://sumo.dlr.de/xsd/netconvertConfiguration.xsd">

    <input>
        <sumo-net-file value="/home/sifao/src/plexe-prog/examples/overtake/sumocfg/freeway.net.xml"/>
    </input>

    <output>
        <output-file value="/home/sifao/src/plexe-prog/examples/overtake/sumocfg/freeway.net.xml"/>
    </output>
    
    <processing>
        <geometry.min-radius.fix.railways value="false"/>
        <geometry.max-grade.fix value="false"/>
        <offset.disable-normalization value="true"/>
        <lefthand value="false"/>
    </processing>

    <junctions>
        <no-turnarounds value="true"/>
        <junctions.corner-detail value="0"/>
        <junctions.limit-turn-speed value="-1"/>
        <rectangular-lane-cut value="false"/>
    </junctions>

    <pedestrian>
        <walkingareas value="false"/>
    </pedestrian>

    <report>
        <aggregate-warnings value="5"/>
    </report>

</configuration>
-->

<net version="1.3" junctionCornerDetail="5" limitTurnSpeed="5.50" xmlns:xsi="http://www.w3.org/2001/XMLSchema-instance" xsi:noNamespaceSchemaLocation="http://sumo.dlr.de/xsd/net_file.xsd">

    <location netOffset="0.00,0.00" convBoundary="0.00,0.00,10000.00,0.00" origBoundary="-10000000000.00,-10000000000.00,10000000000.00,10000000000.00" projParameter="!"/>

	<edge id="mainlane" from="start" to="stop" priority="1" length="10000.00">
        <lane id="mainlane_0" index="0" speed="13.89" length="10000.00" shape="0.00,-1.60 10000.00,-1.60"/>
        <neigh lane="overtakelane_0"/>
    </edge>

    <edge id="overtakelane" from="stop" to="start" priority="2" length="10000.00">
        <lane id="overtakelane_0" index="0" speed="13.89" length="10000.00" shape="10000.00,1.60 0.00,1.60"/>
        <neigh lane="mainlane_0"/>
    </edge>

    <junction id="start" type="dead_end" x="0.00" y="0.00" incLanes="overtakelane_0" intLanes="" shape="0.00,0.00 0.00,3.20 0.00,0.00"/>
    <junction id="stop" type="dead_end" x="10000.00" y="0.00" incLanes="mainlane_0" intLanes="" shape="10000.00,0.00 10000.00,-3.20 10000.00,0.00"/>

</net>
